Circuit: * C:\Users\lucas\github\Beacon\hardware\LT_Spice\Press_Detection_Transient.asc

Direct Newton iteration for .op point succeeded.

Date: Sun Apr 13 12:45:34 2025
Total elapsed time: 0.050 seconds.

tnom = 27
temp = 27
method = modified trap
totiter = 2199
traniter = 2196
tranpoints = 1099
accept = 1088
rejected = 11
matrix size = 7
fillins = 0
solver = Normal
Avg thread counts: 1.8/2.6/2.6/1.8
Matrix Compiler1: 214 bytes object code size  0.3/0.2/[0.2]
Matrix Compiler2: 453 bytes object code size  0.2/0.3/[0.2]

